#############################################################
#             ______       _    _          _   	            #
#            (_____ \     \ \  / /        | |               #
#             _____) )   _ \ \/ / |_  ____| |  	            #
#            |  ____/ | | | )  (|  _)/ _  | | 	            #
#            | |    | |_| |/ /\ \ |_( (_| | |___            #
#            |_|     \__  /_/  \_\___)__|_|_____)           #
#                   (____/                                  #
#---------------------(version    0.2.2)--------------------#
#       A Python package for random crystal generation      #
#       url: https://github.com/qzhu2017/pyxtal             #
#       @Zhu's group at University of Nevada Las Vegas      #
#############################################################
data_from_pyxtal

_symmetry_space_group_name_H-M 'P2/c'
_symmetry_Int_Tables_number                   13
_symmetry_cell_setting                monoclinic
_cell_length_a            9.088949
_cell_length_b            5.854082
_cell_length_c            5.765438
_cell_angle_alpha        90.000000
_cell_angle_beta         99.068402
_cell_angle_gamma        90.000000

loop_
 _symmetry_equiv_pos_site_id
 _symmetry_equiv_pos_as_xyz
1 'x, y, z'
2 '-x, y, -z+1/2'
3 '-x, -y, -z'
4 'x, -y, z+1/2'

loop_
 _atom_site_label
 _atom_site_type_symbol
 _atom_site_symmetry_multiplicity
 _atom_site_fract_x
 _atom_site_fract_y
 _atom_site_fract_z
 _atom_site_occupancy
Bi     Bi       2     0.500000    0.000000    0.000000 1
Bi     Bi       2     0.000000    0.500000    0.000000 1
Bi     Bi       2     0.500000    0.683533    0.250000 1
O      O        4     0.381371    0.189348    0.779438 1
O      O        4     0.380543    0.042022    0.884619 1
F      F        2     0.000000    0.000000    0.000000 1
#END

