#############################################################
#             ______       _    _          _   	            #
#            (_____ \     \ \  / /        | |               #
#             _____) )   _ \ \/ / |_  ____| |  	            #
#            |  ____/ | | | )  (|  _)/ _  | | 	            #
#            | |    | |_| |/ /\ \ |_( (_| | |___            #
#            |_|     \__  /_/  \_\___)__|_|_____)           #
#                   (____/                                  #
#---------------------(version    0.2.2)--------------------#
#       A Python package for random crystal generation      #
#       url: https://github.com/qzhu2017/pyxtal             #
#       @Zhu's group at University of Nevada Las Vegas      #
#############################################################
data_from_pyxtal

_symmetry_space_group_name_H-M 'P21'
_symmetry_Int_Tables_number                    4
_symmetry_cell_setting                monoclinic
_cell_length_a            5.484166
_cell_length_b            5.260045
_cell_length_c            9.371261
_cell_angle_alpha        90.000000
_cell_angle_beta         90.034517
_cell_angle_gamma        90.000000

loop_
 _symmetry_equiv_pos_site_id
 _symmetry_equiv_pos_as_xyz
1 'x, y, z'
2 '-x, y+1/2, -z'

loop_
 _atom_site_label
 _atom_site_type_symbol
 _atom_site_symmetry_multiplicity
 _atom_site_fract_x
 _atom_site_fract_y
 _atom_site_fract_z
 _atom_site_occupancy
Ni     Ni       2     0.428118    0.820867    0.603066 1
I      I        2     0.218178    0.346987    0.443488 1
I      I        2     0.644797    0.621246    0.357059 1
O      O        2     0.089824    0.358420    0.942733 1
O      O        2     0.627549    0.075183    0.367244 1
O      O        2     0.515555    0.357376    0.050315 1
O      O        2     0.077154    0.780830    0.725045 1
O      O        2     0.546772    0.308998    0.190451 1
O      O        2     0.332416    0.401971    0.302248 1
#END

