#############################################################
#             ______       _    _          _   	            #
#            (_____ \     \ \  / /        | |               #
#             _____) )   _ \ \/ / |_  ____| |  	            #
#            |  ____/ | | | )  (|  _)/ _  | | 	            #
#            | |    | |_| |/ /\ \ |_( (_| | |___            #
#            |_|     \__  /_/  \_\___)__|_|_____)           #
#                   (____/                                  #
#---------------------(version    0.2.2)--------------------#
#       A Python package for random crystal generation      #
#       url: https://github.com/qzhu2017/pyxtal             #
#       @Zhu's group at University of Nevada Las Vegas      #
#############################################################
data_from_pyxtal

_symmetry_space_group_name_H-M 'P21'
_symmetry_Int_Tables_number                    4
_symmetry_cell_setting                monoclinic
_cell_length_a            5.484166
_cell_length_b            5.260045
_cell_length_c            9.371261
_cell_angle_alpha        90.000000
_cell_angle_beta         90.034517
_cell_angle_gamma        90.000000

loop_
 _symmetry_equiv_pos_site_id
 _symmetry_equiv_pos_as_xyz
1 'x, y, z'
2 '-x, y+1/2, -z'

loop_
 _atom_site_label
 _atom_site_type_symbol
 _atom_site_symmetry_multiplicity
 _atom_site_fract_x
 _atom_site_fract_y
 _atom_site_fract_z
 _atom_site_occupancy
Ni     Ni       2     0.108852    0.319876    0.115622 1
I      I        2     0.393397    0.692775    0.358117 1
I      I        2     0.874272    0.928082    0.012891 1
O      O        2     0.897826    0.337961    0.555133 1
O      O        2     0.233154    0.132367    0.376607 1
O      O        2     0.982023    0.357115    0.830093 1
O      O        2     0.418720    0.582812    0.875692 1
O      O        2     0.285064    0.019631    0.853169 1
O      O        2     0.863509    0.833957    0.138566 1
#END

