#############################################################
#             ______       _    _          _   	            #
#            (_____ \     \ \  / /        | |               #
#             _____) )   _ \ \/ / |_  ____| |  	            #
#            |  ____/ | | | )  (|  _)/ _  | | 	            #
#            | |    | |_| |/ /\ \ |_( (_| | |___            #
#            |_|     \__  /_/  \_\___)__|_|_____)           #
#                   (____/                                  #
#---------------------(version    0.2.2)--------------------#
#       A Python package for random crystal generation      #
#       url: https://github.com/qzhu2017/pyxtal             #
#       @Zhu's group at University of Nevada Las Vegas      #
#############################################################
data_from_pyxtal

_symmetry_space_group_name_H-M 'P21'
_symmetry_Int_Tables_number                    4
_symmetry_cell_setting                monoclinic
_cell_length_a            5.484166
_cell_length_b            5.260045
_cell_length_c            9.371261
_cell_angle_alpha        90.000000
_cell_angle_beta         90.034517
_cell_angle_gamma        90.000000

loop_
 _symmetry_equiv_pos_site_id
 _symmetry_equiv_pos_as_xyz
1 'x, y, z'
2 '-x, y+1/2, -z'

loop_
 _atom_site_label
 _atom_site_type_symbol
 _atom_site_symmetry_multiplicity
 _atom_site_fract_x
 _atom_site_fract_y
 _atom_site_fract_z
 _atom_site_occupancy
Ni     Ni       2     0.889955    0.912903    0.128066 1
I      I        2     0.462201    0.411112    0.307221 1
I      I        2     0.688836    0.401190    0.711803 1
O      O        2     0.699224    0.615445    0.272115 1
O      O        2     0.824448    0.066128    0.247624 1
O      O        2     0.680952    0.299479    0.375498 1
O      O        2     0.137427    0.396016    0.495648 1
O      O        2     0.204299    0.285316    0.727074 1
O      O        2     0.499059    0.430194    0.558377 1
#END

