#############################################################
#             ______       _    _          _   	            #
#            (_____ \     \ \  / /        | |               #
#             _____) )   _ \ \/ / |_  ____| |  	            #
#            |  ____/ | | | )  (|  _)/ _  | | 	            #
#            | |    | |_| |/ /\ \ |_( (_| | |___            #
#            |_|     \__  /_/  \_\___)__|_|_____)           #
#                   (____/                                  #
#---------------------(version    0.2.2)--------------------#
#       A Python package for random crystal generation      #
#       url: https://github.com/qzhu2017/pyxtal             #
#       @Zhu's group at University of Nevada Las Vegas      #
#############################################################
data_from_pyxtal

_symmetry_space_group_name_H-M 'P21'
_symmetry_Int_Tables_number                    4
_symmetry_cell_setting                monoclinic
_cell_length_a            5.484166
_cell_length_b            5.260045
_cell_length_c            9.371261
_cell_angle_alpha        90.000000
_cell_angle_beta         90.034517
_cell_angle_gamma        90.000000

loop_
 _symmetry_equiv_pos_site_id
 _symmetry_equiv_pos_as_xyz
1 'x, y, z'
2 '-x, y+1/2, -z'

loop_
 _atom_site_label
 _atom_site_type_symbol
 _atom_site_symmetry_multiplicity
 _atom_site_fract_x
 _atom_site_fract_y
 _atom_site_fract_z
 _atom_site_occupancy
Ni     Ni       2     0.172451    0.458464    0.775947 1
I      I        2     0.190334    0.105302    0.628478 1
I      I        2     0.374679    0.503773    0.585559 1
O      O        2     0.145314    0.465602    0.094937 1
O      O        2     0.130793    0.080911    0.245704 1
O      O        2     0.254674    0.360430    0.545517 1
O      O        2     0.401809    0.381511    0.781089 1
O      O        2     0.832762    0.380654    0.584793 1
O      O        2     0.946888    0.639101    0.829068 1
#END

